Version 4
SHEET 1 1660 688
WIRE -128 -256 -192 -256
WIRE 0 -256 -48 -256
WIRE 160 -256 0 -256
WIRE 320 -256 160 -256
WIRE 512 -256 320 -256
WIRE 592 -256 512 -256
WIRE 0 -192 0 -256
WIRE 0 -192 -48 -192
WIRE 480 -144 432 -144
WIRE 64 -128 -16 -128
WIRE 112 -128 64 -128
WIRE 224 -128 112 -128
WIRE 352 -128 224 -128
WIRE 64 -96 64 -128
WIRE 432 -96 432 -144
WIRE 160 -48 160 -256
WIRE 160 -48 64 -48
WIRE 512 -48 512 -256
WIRE 512 -48 432 -48
WIRE -16 -16 -16 -128
WIRE 16 -16 -16 -16
WIRE 352 -16 352 -128
WIRE 384 -16 352 -16
WIRE -48 16 -48 -192
WIRE 64 16 64 0
WIRE 64 16 -48 16
WIRE 320 16 320 -256
WIRE 432 16 432 0
WIRE 432 16 320 16
WIRE 480 48 480 -144
WIRE 480 48 432 48
WIRE 928 48 480 48
WIRE 960 48 928 48
WIRE 112 96 112 -128
WIRE 112 96 64 96
WIRE 432 96 432 48
WIRE 320 144 64 144
WIRE 560 144 432 144
WIRE 592 160 592 -256
WIRE -112 176 -496 176
WIRE 16 176 -112 176
WIRE -112 224 -320 224
WIRE 384 224 384 176
WIRE 384 224 -112 224
WIRE -496 240 -496 176
WIRE 64 256 64 192
WIRE 256 256 64 256
WIRE 432 256 432 192
WIRE 432 256 256 256
WIRE -320 272 -320 224
WIRE 432 320 160 320
WIRE 512 320 432 320
WIRE 592 320 592 240
WIRE 592 320 512 320
WIRE 256 352 256 256
WIRE 512 352 512 320
WIRE -496 400 -496 320
WIRE -416 400 -496 400
WIRE -320 400 -320 352
WIRE -320 400 -416 400
WIRE 320 400 320 144
WIRE 320 400 256 400
WIRE 560 400 560 144
WIRE 560 400 512 400
WIRE 160 432 160 320
WIRE 208 432 160 432
WIRE 432 432 432 320
WIRE 464 432 432 432
WIRE -416 512 -416 480
WIRE -192 512 -192 -256
WIRE -192 512 -416 512
WIRE 256 512 256 448
WIRE 256 512 -192 512
WIRE 320 512 320 400
WIRE 320 512 256 512
WIRE 512 512 512 448
WIRE 512 512 320 512
WIRE 560 512 560 400
WIRE 560 512 512 512
WIRE 256 624 256 512
FLAG 928 48 Vout
FLAG -112 176 Vin1
FLAG -112 224 Vin2
FLAG 224 -128 VG34
FLAG 256 624 0
SYMBOL voltage -32 -256 R90
WINDOW 0 -32 56 VBottom 2
WINDOW 3 32 56 VTop 2
WINDOW 123 0 0 Left 0
WINDOW 39 0 0 Left 0
SYMATTR InstName V1
SYMATTR Value 1.8
SYMBOL pmos4 384 -96 R0
SYMATTR InstName M3
SYMATTR Value pch
SYMATTR Value2 l=0.18e-6 w=1.0e-6
SYMBOL pmos4 16 -96 R0
SYMATTR InstName M4
SYMATTR Value pch
SYMATTR Value2 l=0.18e-6 w=1.0e-6
SYMBOL nmos4 384 96 R0
SYMATTR InstName M1
SYMATTR Value nch
SYMATTR Value2 l=0.18e-6 w=1.0e-6
SYMBOL nmos4 16 96 R0
SYMATTR InstName M2
SYMATTR Value nch
SYMATTR Value2 l=0.18e-6 w=1.0e-6
SYMBOL nmos4 208 352 R0
SYMATTR InstName M5
SYMATTR Value nch
SYMATTR Value2 l=0.18e-6 w=1.5e-6
SYMBOL voltage -416 384 R0
SYMATTR InstName V3
SYMATTR Value 0.9
SYMBOL voltage -320 256 R0
WINDOW 3 -304 -51 Left 2
SYMATTR InstName V4
SYMATTR Value PULSE(0.1 -0.1 0 1n 1n 100n 200n)
SYMBOL voltage -496 224 R0
WINDOW 3 -402 106 Left 2
SYMATTR InstName V5
SYMATTR Value PULSE(-0.1 0.1 0 1n 1n 100n 200n)
SYMBOL nmos4 464 352 R0
SYMATTR InstName M6
SYMATTR Value nch
SYMATTR Value2 l=0.18e-6 w=1.5e-6
SYMBOL res 576 144 R0
SYMATTR InstName R1
SYMATTR Value 10000
TEXT -192 568 Left 2 !.tran 0 400n\n.option cshunt=10e-15
TEXT -168 632 Left 2 ;.ac dec 100 10 1000000000
TEXT -448 -440 Left 2 !.lib '/Users/harrywang/Everything/UW_2B/ECE_298A/ECE298A-Sense-Amp-Project/mos018.l' TT
TEXT 912 -72 Left 2 !.op
